CRYSTAL
PRIMVEC
5.153680 0.000000 0.000000
0.000000 5.174142 0.000000
-0.870082 0.000000 5.244726
CONVVEC
5.153680 0.000000 0.000000
0.000000 5.174142 0.000000
-0.870082 0.000000 5.244726
PRIMCOORD
12 1
72 1.055763 4.963104 1.076915
72 3.238643 2.376033 1.510916
72 3.227835 0.211038 4.167811
72 1.044955 2.798109 3.733810
8 -0.263800 3.493177 1.823822
8 4.558206 0.906106 0.764010
8 4.547398 1.680965 3.420904
8 -0.274608 4.268036 4.480716
8 1.515598 1.259805 2.462735
8 2.778808 3.846876 0.125097
8 2.768000 3.914337 2.781991
8 1.504790 1.327266 5.119629
