CRYSTAL
PRIMVEC
10.840000 0.000000 0.000000
0.000000 10.840000 0.000000
0.000000 0.000000 20.704614
CONVVEC
10.840000 0.000000 0.000000
0.000000 10.840000 0.000000
0.000000 0.000000 20.704614
PRIMCOORD
180 1
14 0.776155 1.619388 6.896686
14 4.955669 0.903091 4.215811
14 3.045552 3.079980 3.593658
14 2.959103 4.438048 7.687188
14 8.388079 10.366758 6.628872
14 3.195697 0.629544 0.845059
8 1.528635 0.140454 5.951728
8 3.815908 1.644536 3.396219
8 9.683784 5.531468 7.867878
8 2.302362 3.560051 2.192453
8 1.292963 0.852859 3.570221
8 4.999386 10.005298 4.039056
8 10.064431 10.700207 7.080315
8 1.805738 3.531011 4.546319
8 2.082852 4.829057 9.089553
8 3.344769 10.332276 1.773785
8 4.186191 4.435349 3.845861
8 2.667269 2.476311 7.509522
14 2.400355 7.582396 7.055967
14 5.063039 6.456423 1.480711
14 2.506739 8.576771 2.111146
14 4.273616 9.431071 8.488374
14 5.712561 5.050020 4.318796
14 2.234699 4.810629 0.964028
8 2.292270 5.293280 6.431019
8 3.935354 7.779770 1.791073
8 9.591265 10.014512 9.905564
8 0.600167 9.245143 1.318987
8 1.368203 6.622926 2.007871
8 5.511631 5.982379 3.265842
8 1.507237 7.347807 8.760971
8 2.301711 8.763782 3.789421
8 3.399858 10.023228 9.757670
8 4.041813 5.140892 1.110161
8 6.760344 9.491417 6.450336
8 4.092902 7.773787 7.820091
14 7.205315 2.479487 6.168857
14 10.715004 1.164129 3.316072
14 8.047746 3.365430 2.967240
14 9.458789 3.960231 7.495691
14 1.351607 9.497076 4.891051
14 7.254486 0.209971 2.081849
8 8.179972 1.109799 5.696605
8 9.857289 2.430057 3.530675
8 4.566415 4.794911 7.574887
8 7.724877 3.895181 1.500898
8 6.587425 1.467758 2.979663
8 10.566973 10.102902 4.137507
8 6.047159 1.791332 7.718018
8 6.981166 3.782759 4.379792
8 7.898880 4.920449 9.473168
8 9.736260 0.825325 1.722707
8 0.122102 3.561038 6.218714
8 8.096678 3.793859 6.835318
14 7.022206 7.988885 5.840150
14 10.198142 6.119679 2.849410
14 9.011812 9.020929 3.785093
14 7.569778 10.071184 9.487682
14 0.918744 4.793199 5.177251
14 7.765993 5.779086 10.710186
8 6.718090 6.190626 5.118885
8 9.831371 7.609040 3.358930
8 4.012870 10.735383 7.433019
8 7.884637 9.797019 2.739738
8 6.948592 6.822208 1.743660
8 10.721345 5.720051 4.340950
8 6.369692 7.079496 7.140462
8 8.405369 8.842676 5.373137
8 7.158617 0.061506 10.805469
8 9.070337 5.058215 2.393205
8 1.510435 8.169360 6.087239
8 8.337998 10.205567 8.270644
14 10.769171 10.651482 10.854001
8 0.869303 5.174626 10.871599
8 10.152961 2.589101 8.019912
14 0.116909 6.564520 9.216141
8 1.368507 1.037496 10.412640
8 9.326140 6.926727 9.861690
14 4.365452 1.460636 7.699570
8 6.102161 6.185131 9.913328
8 3.946757 1.774161 10.086108
14 5.608041 5.979864 8.156334
8 5.414884 2.071773 5.600743
8 5.965035 9.443288 9.157651
72 1.298209 10.618940 11.796247
72 9.089611 2.488940 12.236178
72 9.541791 0.221060 20.102441
72 1.750389 8.351060 19.662509
8 0.040769 9.079161 12.553373
8 10.347051 0.949161 11.479073
8 10.799231 1.760839 19.345335
8 0.492949 9.890839 20.419636
8 2.023590 1.319672 13.201013
8 8.364231 9.449672 10.831412
8 8.816410 9.520328 18.697674
8 2.475769 1.390328 0.362662
72 1.298209 5.177498 11.796247
72 9.089611 7.887498 12.236178
72 9.541791 5.619629 20.102441
72 1.750389 2.909629 19.662509
8 0.040769 3.637720 12.553373
8 10.347051 6.347720 11.479073
8 10.799231 7.159408 19.345335
8 0.492949 4.449408 20.419636
8 2.023590 6.718231 13.201013
8 8.364231 4.008231 10.831412
8 8.816410 4.078897 18.697674
8 2.475769 6.788897 0.362662
72 6.718209 10.618940 11.796247
72 3.669611 2.488940 12.236178
72 4.121791 0.221060 20.102441
72 7.170389 8.351060 19.662509
8 5.460769 9.079161 12.553373
8 4.927051 0.949161 11.479073
8 5.379231 1.760839 19.345335
8 5.912949 9.890839 20.419636
8 7.443590 1.319672 13.201013
8 2.944231 9.449672 10.831412
8 3.396410 9.520328 18.697674
8 7.895769 1.390328 0.362662
72 6.718209 5.177498 11.796247
72 3.669611 7.887498 12.236178
72 4.121791 5.619629 20.102441
72 7.170389 2.909629 19.662509
8 5.460769 3.637720 12.553373
8 4.927051 6.347720 11.479073
8 5.379231 7.159408 19.345335
8 5.912949 4.449408 20.419636
8 7.443590 6.718231 13.201013
8 2.944231 4.008231 10.831412
8 3.396410 4.078897 18.697674
8 7.895769 6.788897 0.362662
72 0.383205 10.618940 17.040974
72 8.174607 2.488940 17.480906
72 8.626786 0.221060 14.857714
72 0.835385 8.351060 14.417782
8 9.965765 9.079161 17.798100
8 9.432047 0.949161 16.723800
8 9.884226 1.760839 14.100588
8 10.417945 9.890839 15.174888
8 1.108585 1.319672 18.445741
8 7.449226 9.449672 16.076160
8 7.901406 9.520328 13.452947
8 1.560765 1.390328 15.822549
72 0.383205 5.177498 17.040974
72 8.174607 7.887498 17.480906
72 8.626786 5.619629 14.857714
72 0.835385 2.909629 14.417782
8 9.965765 3.637720 17.798100
8 9.432047 6.347720 16.723800
8 9.884226 7.159408 14.100588
8 10.417945 4.449408 15.174888
8 1.108585 6.718231 18.445741
8 7.449226 4.008231 16.076160
8 7.901406 4.078897 13.452947
8 1.560765 6.788897 15.822549
72 5.803205 10.618940 17.040974
72 2.754607 2.488940 17.480906
72 3.206786 0.221060 14.857714
72 6.255385 8.351060 14.417782
8 4.545765 9.079161 17.798100
8 4.012047 0.949161 16.723800
8 4.464226 1.760839 14.100588
8 4.997945 9.890839 15.174888
8 6.528585 1.319672 18.445741
8 2.029226 9.449672 16.076160
8 2.481406 9.520328 13.452947
8 6.980765 1.390328 15.822549
72 5.803205 5.177498 17.040974
72 2.754607 7.887498 17.480906
72 3.206786 5.619629 14.857714
72 6.255385 2.909629 14.417782
8 4.545765 3.637720 17.798100
8 4.012047 6.347720 16.723800
8 4.464226 7.159408 14.100588
8 4.997945 4.449408 15.174888
8 6.528585 6.718231 18.445741
8 2.029226 4.008231 16.076160
8 2.481406 4.078897 13.452947
8 6.980765 6.788897 15.822549
