CRYSTAL
PRIMVEC
5.420000 0.000000 0.000000
0.000000 5.420000 0.000000
0.000000 0.000000 39.000000
CONVVEC
5.420000 0.000000 0.000000
0.000000 5.420000 0.000000
0.000000 0.000000 39.000000
PRIMCOORD
60 1
14 0.677901 0.677901 0.677898
14 3.387901 3.387901 0.677898
14 2.032901 4.742901 2.032914
14 4.742901 2.032901 2.032914
14 0.677901 3.387901 3.387891
14 3.387901 0.677901 3.387891
14 2.032901 2.032901 4.742907
14 4.742901 4.742901 4.742907
14 0.677901 0.677901 6.097884
14 3.387901 3.387901 6.097884
14 2.032901 4.742901 7.452900
14 4.742901 2.032901 7.452900
14 0.677901 3.387901 8.807916
14 3.387901 0.677901 8.807916
14 2.032901 2.032901 10.162893
14 4.742901 4.742901 10.162893
14 0.677901 0.677901 11.517909
14 3.387901 3.387901 11.517909
14 2.032901 4.742901 12.872886
14 4.742901 2.032901 12.872886
14 0.677901 3.387901 14.227902
14 3.387901 0.677901 14.227902
14 2.032901 2.032901 15.582918
14 4.742901 4.742901 15.582918
14 1.306827 2.798080 27.136044
14 3.764190 2.798080 31.392348
14 1.306827 4.436649 31.121649
14 3.764190 4.436649 26.865345
14 4.758440 1.159999 29.128827
14 2.301077 1.159999 33.385131
8 0.788323 2.207328 28.503150
8 2.749794 3.845409 30.886674
8 0.292425 3.845409 26.631267
8 1.376122 0.063978 32.252961
8 0.292425 3.389321 31.627284
8 3.833490 1.750752 30.260997
8 1.376122 1.750752 26.004732
8 0.788323 5.027402 29.754504
8 3.245686 5.027402 25.498239
8 3.199491 2.165062 32.682819
8 3.923430 0.021713 27.994980
8 2.706542 3.431586 27.291849
14 1.306827 2.798080 18.623475
14 3.764190 2.798080 22.879779
14 1.306827 4.436649 22.609080
14 3.764190 4.436649 18.352776
14 4.758440 1.159999 20.616297
14 2.301077 1.159999 24.872562
8 0.788323 2.207328 19.990620
8 2.749794 3.845409 22.374105
8 0.292425 3.845409 18.118698
8 1.376122 0.063978 23.740392
8 0.292425 3.389321 23.114715
8 3.833490 1.750752 21.748467
8 1.376122 1.750752 17.492163
8 0.788323 5.027402 21.241935
8 3.245686 5.027402 16.985670
8 3.199491 2.165062 24.170289
8 3.923430 0.021713 19.482411
8 2.706542 3.431586 18.779280
