CRYSTAL
PRIMVEC
10.840000 0.000000 0.000000
0.000000 10.840000 0.000000
0.000000 0.000000 18.345151
CONVVEC
10.840000 0.000000 0.000000
0.000000 10.840000 0.000000
0.000000 0.000000 18.345151
PRIMCOORD
132 1
8 1.619886 0.146383 13.226120
8 3.868482 1.743972 10.795369
8 10.204082 5.223536 15.182520
8 2.512278 3.673969 9.621445
8 1.148238 1.131902 10.532813
8 5.151612 10.296797 11.396375
8 9.987629 10.832607 13.867925
8 1.949422 3.486924 12.061295
8 2.270037 4.751107 16.237532
8 3.490610 10.145199 9.227721
8 4.548009 4.172381 11.711379
8 3.470036 2.752872 14.645081
8 2.201853 5.444878 13.764972
8 3.824265 7.703392 8.927301
8 9.415136 9.797712 17.726387
8 1.379867 8.909255 8.510481
8 1.408441 6.233672 9.686533
8 5.293627 6.356197 10.683134
8 1.032304 7.206063 15.784333
8 2.014560 8.909645 11.052146
8 3.487423 9.432643 17.323785
8 4.134669 5.288673 8.679843
8 6.587370 9.320525 13.566808
8 3.520225 8.141111 15.073532
8 7.839098 0.970928 13.248575
8 9.356546 2.451726 10.777996
8 4.650447 4.990573 14.915635
8 7.435058 3.623942 8.930438
8 6.602872 1.232291 10.303517
8 10.450508 10.092094 11.382065
8 5.876939 2.007470 15.185694
8 7.156796 4.050713 11.284763
8 7.844052 4.736625 16.547363
8 9.871934 0.973334 8.799509
8 10.635341 3.881457 13.402857
8 7.998489 3.403500 14.048350
8 6.788149 6.387665 12.479161
8 9.762471 7.590677 10.466202
8 4.127590 0.108899 15.180612
8 8.155322 9.784249 10.339859
8 6.843726 6.261043 8.365334
8 0.309233 5.673905 11.647557
8 6.503837 7.074119 14.876597
8 8.613421 8.511059 12.767987
8 6.955291 0.508017 17.650328
8 9.336665 5.044210 10.012288
8 1.533936 8.385184 13.427733
8 7.910869 10.393641 15.478960
8 0.330707 5.530199 17.825451
8 10.101829 2.422946 15.436784
8 0.783125 0.881021 17.716591
8 9.573606 6.926684 17.136352
8 5.483186 6.311818 17.254550
8 4.107959 2.173355 17.214099
8 5.728821 2.024879 12.630783
8 5.823335 9.281696 16.456444
14 1.412907 1.493839 0.954131
14 3.360617 2.815647 0.130856
14 2.198666 4.596908 1.947008
14 4.716419 2.110385 1.968710
14 0.699039 3.406329 3.421958
14 3.459174 0.628286 3.321977
14 2.055264 1.932284 4.667116
14 4.737611 4.751573 4.661393
14 0.956348 6.288685 0.837860
14 3.063482 8.744964 0.461436
14 2.086928 10.195562 1.973131
14 4.687498 7.616737 1.779847
14 0.654129 8.863272 3.321683
14 3.452659 6.108492 3.254448
14 2.032565 7.436283 4.572676
14 4.762381 10.205372 4.677206
14 6.262214 0.602563 0.850353
14 8.739620 3.492041 0.536944
14 7.351059 4.633504 1.954731
14 10.108950 2.164141 2.022388
14 6.111809 3.355121 3.401980
14 8.788985 0.711516 3.398659
14 7.452663 2.047676 4.790323
14 10.118750 4.738489 4.720391
14 6.110356 6.016395 0.430157
14 8.486994 8.770254 0.370095
14 7.490765 10.081298 2.126350
14 10.068582 7.549659 1.886615
14 6.108904 8.762861 3.438340
14 8.698829 6.081544 3.298513
14 7.474191 7.418311 4.852586
14 10.081243 10.126002 4.700285
14 0.429654 0.774572 5.930987
14 3.508962 3.225236 5.921998
14 1.453091 4.339664 6.580020
14 4.987983 2.254373 7.567888
14 0.423811 6.369270 5.887014
14 3.199263 8.995986 5.882905
14 1.659290 10.112398 7.231457
14 5.016665 8.183842 7.206012
14 5.986759 0.763613 6.014916
14 8.836725 3.350416 6.255825
14 7.463481 4.862596 7.726776
14 10.353024 2.106689 7.501516
14 6.041446 6.006433 6.136178
14 8.885104 8.770449 6.284388
14 7.007453 9.925473 7.305534
14 10.081980 7.260686 7.706871
14 0.178556 1.057659 14.306594
14 5.377876 1.050396 11.320683
14 3.222049 3.245496 11.046771
14 3.129150 4.322136 14.895217
14 8.329890 10.449543 13.913751
14 3.151502 0.639029 8.339577
14 2.074375 7.499676 14.648805
14 5.150388 6.540487 9.065477
14 2.670467 8.788714 9.566886
14 4.328867 9.430496 15.892441
14 5.962325 5.129250 11.551483
14 2.441428 5.121824 8.835630
14 6.840116 2.170038 13.819751
14 10.469825 1.314762 10.396160
14 8.393130 3.776212 10.259122
14 9.510333 3.731399 14.686834
14 1.313613 9.689941 12.339884
14 7.238703 10.814797 9.485819
14 6.973545 7.764063 13.351161
14 10.606832 6.170226 10.180421
14 9.269392 8.949862 11.258823
14 7.354051 9.872552 16.933657
14 1.019350 4.683303 12.674426
14 8.466961 5.826153 17.625452
14 0.248106 10.131714 17.818058
14 0.024954 6.055332 16.346942
14 4.320130 1.705652 15.641589
14 5.685602 5.946065 15.703871
