CRYSTAL
PRIMVEC
10.840000 0.000000 0.000000
0.000000 10.840000 0.000000
0.000000 0.000000 26.299882
CONVVEC
10.840000 0.000000 0.000000
0.000000 10.840000 0.000000
0.000000 0.000000 26.299882
PRIMCOORD
196 1
14 0.677901 0.677901 0.677906
14 3.387901 3.387901 0.677906
14 2.032901 4.742901 2.032902
14 4.742901 2.032901 2.032902
14 0.677901 3.387901 3.387898
14 3.387901 0.677901 3.387898
14 2.032901 2.032901 4.742894
14 4.742901 4.742901 4.742894
14 0.677901 0.677901 6.097891
14 3.387901 3.387901 6.097891
14 2.032901 4.742901 7.452887
14 4.742901 2.032901 7.452887
14 0.677901 3.387901 8.807909
14 3.387901 0.677901 8.807909
14 2.032901 2.032901 10.162906
14 4.742901 4.742901 10.162906
14 0.677901 6.097901 0.677906
14 3.387901 8.807901 0.677906
14 2.032901 10.162901 2.032902
14 4.742901 7.452901 2.032902
14 0.677901 8.807901 3.387898
14 3.387901 6.097901 3.387898
14 2.032901 7.452901 4.742894
14 4.742901 10.162901 4.742894
14 0.677901 6.097901 6.097891
14 3.387901 8.807901 6.097891
14 2.032901 10.162901 7.452887
14 4.742901 7.452901 7.452887
14 0.677901 8.807901 8.807909
14 3.387901 6.097901 8.807909
14 2.032901 7.452901 10.162906
14 4.742901 10.162901 10.162906
14 6.097901 0.677901 0.677906
14 8.807901 3.387901 0.677906
14 7.452901 4.742901 2.032902
14 10.162901 2.032901 2.032902
14 6.097901 3.387901 3.387898
14 8.807901 0.677901 3.387898
14 7.452901 2.032901 4.742894
14 10.162901 4.742901 4.742894
14 6.097901 0.677901 6.097891
14 8.807901 3.387901 6.097891
14 7.452901 4.742901 7.452887
14 10.162901 2.032901 7.452887
14 6.097901 3.387901 8.807909
14 8.807901 0.677901 8.807909
14 7.452901 2.032901 10.162906
14 10.162901 4.742901 10.162906
14 6.097901 6.097901 0.677906
14 8.807901 8.807901 0.677906
14 7.452901 10.162901 2.032902
14 10.162901 7.452901 2.032902
14 6.097901 8.807901 3.387898
14 8.807901 6.097901 3.387898
14 7.452901 7.452901 4.742894
14 10.162901 10.162901 4.742894
14 6.097901 6.097901 6.097891
14 8.807901 8.807901 6.097891
14 7.452901 10.162901 7.452887
14 10.162901 7.452901 7.452887
14 6.097901 8.807901 8.807909
14 8.807901 6.097901 8.807909
14 7.452901 7.452901 10.162906
14 10.162901 10.162901 10.162906
14 0.776155 1.619388 16.896675
14 4.955669 0.903091 14.215823
14 3.045552 3.079980 13.593673
14 2.959103 4.438048 17.687170
14 8.388079 10.366758 16.628889
14 3.195697 0.629544 10.845046
8 1.528635 0.140454 15.951720
8 3.815908 1.644536 13.396213
8 9.683784 5.531468 17.867877
8 2.302362 3.560051 12.192441
8 1.292963 0.852859 13.570213
8 4.999386 10.005298 14.039061
8 10.064431 10.700207 17.080301
8 1.805738 3.531011 14.546307
8 2.082852 4.829057 19.089559
8 3.344769 10.332276 11.773800
8 4.186191 4.435349 13.845862
8 2.667269 2.476311 17.509515
14 2.400355 7.582396 17.055947
14 5.063039 6.456423 11.480714
14 2.506739 8.576771 12.111148
14 4.273616 9.431071 18.488370
14 5.712561 5.050020 14.318787
14 2.234699 4.810629 10.964026
8 2.292270 5.293280 16.431009
8 3.935354 7.779770 11.791079
8 9.591265 10.014512 19.905565
8 0.600167 9.245143 11.318996
8 1.368203 6.622926 12.007869
8 5.511631 5.982379 13.265845
8 1.507237 7.347807 18.760968
8 2.301711 8.763782 13.789423
8 3.399858 10.023228 19.757681
8 4.041813 5.140892 11.110148
8 6.760344 9.491417 16.450339
8 4.092902 7.773787 17.820090
14 7.205315 2.479487 16.168852
14 10.715004 1.164129 13.316077
14 8.047746 3.365430 12.967236
14 9.458789 3.960231 17.495707
14 1.351607 9.497076 14.891072
14 7.254486 0.209971 12.081850
8 8.179972 1.109799 15.696611
8 9.857289 2.430057 13.530684
8 4.566415 4.794911 17.574870
8 7.724877 3.895181 11.500912
8 6.587425 1.467758 12.979649
8 10.566973 10.102902 14.137502
8 6.047159 1.791332 17.718020
8 6.981166 3.782759 14.379802
8 7.898880 4.920449 19.473169
8 9.736260 0.825325 11.722699
8 0.122102 3.561038 16.218716
8 8.096678 3.793859 16.835317
14 7.022206 7.988885 15.840156
14 10.198142 6.119679 12.849412
14 9.011812 9.020929 13.785109
14 7.569778 10.071184 19.487687
14 0.918744 4.793199 15.177267
14 7.765993 5.779086 20.710184
8 6.718090 6.190626 15.118882
8 9.831371 7.609040 13.358920
8 4.012870 10.735383 17.433008
8 7.884637 9.797019 12.739742
8 6.948592 6.822208 11.743660
8 10.721345 5.720051 14.340957
8 6.369692 7.079496 17.140448
8 8.405369 8.842676 15.373149
8 7.158617 0.061506 20.805468
8 9.070337 5.058215 12.393214
8 1.510435 8.169360 16.087217
8 8.337998 10.205567 18.270660
14 10.769171 10.651482 20.853992
8 0.869303 5.174626 20.871613
8 10.152961 2.589101 18.019916
14 0.116909 6.564520 19.216140
8 1.368507 1.037496 20.412627
8 9.326140 6.926727 19.861697
14 4.365452 1.460636 17.699558
8 6.102161 6.185131 19.913324
8 3.946757 1.774161 20.086114
14 5.608041 5.979864 18.156334
8 5.414884 2.071773 15.600748
8 5.965035 9.443288 19.157649
72 1.298209 10.618940 22.391509
72 9.089611 2.488940 22.831454
72 9.541791 0.221060 25.452973
72 1.750389 8.351060 25.013055
8 0.040769 9.079161 23.148630
8 10.347051 0.949161 22.074333
8 10.799231 1.760839 24.695852
8 0.492949 9.890839 25.770176
8 2.023590 1.319672 23.796265
8 8.364231 9.449672 21.426698
8 8.816410 9.520328 24.048218
8 2.475769 1.390328 0.117929
72 1.298209 5.177498 22.391509
72 9.089611 7.887498 22.831454
72 9.541791 5.619629 25.452973
72 1.750389 2.909629 25.013055
8 0.040769 3.637720 23.148630
8 10.347051 6.347720 22.074333
8 10.799231 7.159408 24.695852
8 0.492949 4.449408 25.770176
8 2.023590 6.718231 23.796265
8 8.364231 4.008231 21.426698
8 8.816410 4.078897 24.048218
8 2.475769 6.788897 0.117929
72 6.718209 10.618940 22.391509
72 3.669611 2.488940 22.831454
72 4.121791 0.221060 25.452973
72 7.170389 8.351060 25.013055
8 5.460769 9.079161 23.148630
8 4.927051 0.949161 22.074333
8 5.379231 1.760839 24.695852
8 5.912949 9.890839 25.770176
8 7.443590 1.319672 23.796265
8 2.944231 9.449672 21.426698
8 3.396410 9.520328 24.048218
8 7.895769 1.390328 0.117929
72 6.718209 5.177498 22.391509
72 3.669611 7.887498 22.831454
72 4.121791 5.619629 25.452973
72 7.170389 2.909629 25.013055
8 5.460769 3.637720 23.148630
8 4.927051 6.347720 22.074333
8 5.379231 7.159408 24.695852
8 5.912949 4.449408 25.770176
8 7.443590 6.718231 23.796265
8 2.944231 4.008231 21.426698
8 3.396410 4.078897 24.048218
8 7.895769 6.788897 0.117929
